
     RDKit          3D

 57 59  0  0  0  0  0  0  0  0999 V2000
   19.0250   -4.0180    8.5290 N   0  0  0  0  0  0  0  0  0  0  0  0
   17.8680   -3.6860    9.0980 C   0  0  0  0  0  0  0  0  0  0  0  0
   17.0800   -2.7790    8.5250 N   0  0  0  0  0  4  0  0  0  0  0  0
   17.4570   -4.3270   10.3670 C   0  0  0  0  0  0  0  0  0  0  0  0
   16.7610   -3.5940   11.3280 C   0  0  0  0  0  0  0  0  0  0  0  0
   16.3810   -4.1970   12.5100 C   0  0  0  0  0  0  0  0  0  0  0  0
   16.6900   -5.5260   12.7420 C   0  0  0  0  0  0  0  0  0  0  0  0
   16.2730   -6.1770   14.0360 C   0  0  0  0  0  0  0  0  0  0  0  0
   15.5960   -7.4440   13.7480 N   0  0  0  0  0  0  0  0  0  0  0  0
   15.4730   -8.3770   14.7130 C   0  0  0  0  0  0  0  0  0  0  0  0
   15.9230   -8.1670   15.8200 O   0  0  0  0  0  0  0  0  0  0  0  0
   14.7780   -9.6810   14.4170 C   0  0  2  0  0  0  0  0  0  0  0  0
   13.7830  -10.0170   15.5480 C   0  0  0  0  0  0  0  0  0  0  0  0
   14.5900  -10.9960   16.4410 C   0  0  0  0  0  0  0  0  0  0  0  0
   15.4090  -11.7780   15.3810 C   0  0  0  0  0  0  0  0  0  0  0  0
   15.7620  -10.7710   14.3630 N   0  0  0  0  0  0  0  0  0  0  0  0
   16.8110  -10.8420   13.5200 C   0  0  0  0  0  0  0  0  0  0  0  0
   17.6410   -9.9580   13.5090 O   0  0  0  0  0  0  0  0  0  0  0  0
   16.9530  -12.0190   12.5900 C   0  0  2  0  0  0  0  0  0  0  0  0
   17.8480  -13.0150   13.1930 N   0  0  0  0  0  0  0  0  0  0  0  0
   17.5380  -11.5480   11.2560 C   0  0  0  0  0  0  0  0  0  0  0  0
   17.4950  -12.6790   10.2620 C   0  0  0  0  0  0  0  0  0  0  0  0
   16.2790  -13.1500    9.8040 C   0  0  0  0  0  0  0  0  0  0  0  0
   16.2390  -14.1880    8.8910 C   0  0  0  0  0  0  0  0  0  0  0  0
   17.4160  -14.7540    8.4360 C   0  0  0  0  0  0  0  0  0  0  0  0
   18.6320  -14.2820    8.8950 C   0  0  0  0  0  0  0  0  0  0  0  0
   18.6710  -13.2420    9.8040 C   0  0  0  0  0  0  0  0  0  0  0  0
   17.3860   -6.2560   11.7960 C   0  0  0  0  0  0  0  0  0  0  0  0
   17.7660   -5.6660   10.6080 C   0  0  0  0  0  0  0  0  0  0  0  0
   19.5990   -4.6790    8.9460 H   0  0  0  0  0  0  0  0  0  0  0  0
   19.2950   -3.5980    7.6970 H   0  0  0  0  0  0  0  0  0  0  0  0
   17.3490   -2.3590    7.6920 H   0  0  0  0  0  0  0  0  0  0  0  0
   16.2370   -2.5380    8.9390 H   0  0  0  0  0  0  0  0  0  0  0  0
   16.5154   -2.5376   11.1443 H   0  0  0  0  0  0  0  0  0  0  0  0
   15.8317   -3.6204   13.2688 H   0  0  0  0  0  0  0  0  0  0  0  0
   17.1628   -6.3686   14.6537 H   0  0  0  0  0  0  0  0  0  0  0  0
   15.5875   -5.5095   14.5786 H   0  0  0  0  0  0  0  0  0  0  0  0
   15.2360   -7.6120   12.8630 H   0  0  0  0  0  0  0  0  0  0  0  0
   14.2541   -9.5795   13.4551 H   0  0  0  0  0  0  0  0  0  0  0  0
   13.4999   -9.1131   16.1074 H   0  0  0  0  0  0  0  0  0  0  0  0
   12.8371  -10.4427   15.1818 H   0  0  0  0  0  0  0  0  0  0  0  0
   15.2473  -10.4553   17.1379 H   0  0  0  0  0  0  0  0  0  0  0  0
   13.9663  -11.6331   17.0853 H   0  0  0  0  0  0  0  0  0  0  0  0
   16.3155  -12.2085   15.8314 H   0  0  0  0  0  0  0  0  0  0  0  0
   14.8427  -12.6194   14.9552 H   0  0  0  0  0  0  0  0  0  0  0  0
   15.9651  -12.4710   12.4178 H   0  0  0  0  0  0  0  0  0  0  0  0
   17.3520  -13.8700   13.3980 H   0  0  0  0  0  0  0  0  0  0  0  0
   18.6440  -13.1910   12.5990 H   0  0  0  0  0  0  0  0  0  0  0  0
   16.9472  -10.7020   10.8748 H   0  0  0  0  0  0  0  0  0  0  0  0
   18.5804  -11.2297   11.4046 H   0  0  0  0  0  0  0  0  0  0  0  0
   15.3430  -12.6993   10.1657 H   0  0  0  0  0  0  0  0  0  0  0  0
   15.2713  -14.5633    8.5268 H   0  0  0  0  0  0  0  0  0  0  0  0
   17.3848  -15.5792    7.7093 H   0  0  0  0  0  0  0  0  0  0  0  0
   19.5683  -14.7345    8.5365 H   0  0  0  0  0  0  0  0  0  0  0  0
   19.6387  -12.8620   10.1633 H   0  0  0  0  0  0  0  0  0  0  0  0
   17.6372   -7.3090   11.9910 H   0  0  0  0  0  0  0  0  0  0  0  0
   18.3115   -6.2503    9.8523 H   0  0  0  0  0  0  0  0  0  0  0  0
  1  2  1  0
  2  3  2  0
  2  4  1  0
  4  5  2  0
  5  6  1  0
  6  7  2  0
  7  8  1  0
  8  9  1  0
  9 10  1  0
 10 11  2  0
 10 12  1  0
 12 13  1  0
 13 14  1  0
 14 15  1  0
 15 16  1  0
 16 17  1  0
 17 18  2  0
 17 19  1  0
 19 20  1  0
 19 21  1  0
 21 22  1  0
 22 23  2  0
 23 24  1  0
 24 25  2  0
 25 26  1  0
 26 27  2  0
  7 28  1  0
 28 29  2  0
 29  4  1  0
 16 12  1  0
 27 22  1  0
  1 30  1  0
  1 31  1  0
  3 32  1  0
  3 33  1  0
  5 34  1  0
  6 35  1  0
  8 36  1  0
  8 37  1  0
  9 38  1  0
 12 39  1  6
 13 40  1  0
 13 41  1  0
 14 42  1  0
 14 43  1  0
 15 44  1  0
 15 45  1  0
 19 46  1  6
 20 47  1  0
 20 48  1  0
 21 49  1  0
 21 50  1  0
 23 51  1  0
 24 52  1  0
 25 53  1  0
 26 54  1  0
 27 55  1  0
 28 56  1  0
 29 57  1  0
M  CHG  1   3   1
M  END
$$$$

     RDKit          3D

 57 59  0  0  0  0  0  0  0  0999 V2000
   17.2710   -2.9420    8.4040 N   0  0  0  0  0  0  0  0  0  0  0  0
   18.0240   -3.8640    9.0010 C   0  0  0  0  0  0  0  0  0  0  0  0
   19.1770   -4.2390    8.4520 N   0  0  0  0  0  4  0  0  0  0  0  0
   17.5800   -4.4700   10.2760 C   0  0  0  0  0  0  0  0  0  0  0  0
   16.8170   -3.7250   11.1770 C   0  0  0  0  0  0  0  0  0  0  0  0
   16.4060   -4.2950   12.3640 C   0  0  0  0  0  0  0  0  0  0  0  0
   16.7490   -5.6020   12.6620 C   0  0  0  0  0  0  0  0  0  0  0  0
   16.2970   -6.2180   13.9610 C   0  0  0  0  0  0  0  0  0  0  0  0
   15.6150   -7.4860   13.6900 N   0  0  0  0  0  0  0  0  0  0  0  0
   15.4750   -8.4000   14.6710 C   0  0  0  0  0  0  0  0  0  0  0  0
   15.9150   -8.1720   15.7780 O   0  0  0  0  0  0  0  0  0  0  0  0
   14.7750   -9.7050   14.3910 C   0  0  2  0  0  0  0  0  0  0  0  0
   13.7730  -10.0180   15.5220 C   0  0  0  0  0  0  0  0  0  0  0  0
   14.5710  -10.9880   16.4340 C   0  0  0  0  0  0  0  0  0  0  0  0
   15.3900  -11.7900   15.3900 C   0  0  0  0  0  0  0  0  0  0  0  0
   15.7530  -10.8000   14.3580 N   0  0  0  0  0  0  0  0  0  0  0  0
   16.8060  -10.8900   13.5210 C   0  0  0  0  0  0  0  0  0  0  0  0
   17.6520  -10.0200   13.5160 O   0  0  0  0  0  0  0  0  0  0  0  0
   16.9330  -12.0690   12.5920 C   0  0  2  0  0  0  0  0  0  0  0  0
   17.8070  -13.0800   13.2000 N   0  0  0  0  0  0  0  0  0  0  0  0
   17.5340  -11.6080   11.2620 C   0  0  0  0  0  0  0  0  0  0  0  0
   17.4670  -12.7350   10.2630 C   0  0  0  0  0  0  0  0  0  0  0  0
   18.6330  -13.2760    9.7540 C   0  0  0  0  0  0  0  0  0  0  0  0
   18.5720  -14.3100    8.8380 C   0  0  0  0  0  0  0  0  0  0  0  0
   17.3450  -14.8010    8.4310 C   0  0  0  0  0  0  0  0  0  0  0  0
   16.1790  -14.2590    8.9410 C   0  0  0  0  0  0  0  0  0  0  0  0
   16.2410  -13.2290    9.8600 C   0  0  0  0  0  0  0  0  0  0  0  0
   17.5100   -6.3430   11.7760 C   0  0  0  0  0  0  0  0  0  0  0  0
   17.9220   -5.7870   10.5830 C   0  0  0  0  0  0  0  0  0  0  0  0
   16.4300   -2.6690    8.8040 H   0  0  0  0  0  0  0  0  0  0  0  0
   17.5610   -2.5450    7.5680 H   0  0  0  0  0  0  0  0  0  0  0  0
   19.4680   -3.8410    7.6160 H   0  0  0  0  0  0  0  0  0  0  0  0
   19.7260   -4.9090    8.8870 H   0  0  0  0  0  0  0  0  0  0  0  0
   16.5442   -2.6858   10.9409 H   0  0  0  0  0  0  0  0  0  0  0  0
   15.8045   -3.7095   13.0749 H   0  0  0  0  0  0  0  0  0  0  0  0
   17.1710   -6.4019   14.6031 H   0  0  0  0  0  0  0  0  0  0  0  0
   15.6049   -5.5315   14.4707 H   0  0  0  0  0  0  0  0  0  0  0  0
   15.2640   -7.6680   12.8040 H   0  0  0  0  0  0  0  0  0  0  0  0
   14.2565   -9.6160   13.4250 H   0  0  0  0  0  0  0  0  0  0  0  0
   13.4923   -9.1041   16.0661 H   0  0  0  0  0  0  0  0  0  0  0  0
   12.8264  -10.4440   15.1580 H   0  0  0  0  0  0  0  0  0  0  0  0
   15.2281  -10.4403   17.1256 H   0  0  0  0  0  0  0  0  0  0  0  0
   13.9411  -11.6118   17.0852 H   0  0  0  0  0  0  0  0  0  0  0  0
   16.2922  -12.2185   15.8509 H   0  0  0  0  0  0  0  0  0  0  0  0
   14.8210  -12.6347   14.9745 H   0  0  0  0  0  0  0  0  0  0  0  0
   15.9385  -12.5040   12.4139 H   0  0  0  0  0  0  0  0  0  0  0  0
   18.7510  -12.7340   13.2910 H   0  0  0  0  0  0  0  0  0  0  0  0
   17.4440  -13.3830   14.0910 H   0  0  0  0  0  0  0  0  0  0  0  0
   16.9654  -10.7466   10.8817 H   0  0  0  0  0  0  0  0  0  0  0  0
   18.5833  -11.3158   11.4154 H   0  0  0  0  0  0  0  0  0  0  0  0
   19.6086  -12.8841   10.0775 H   0  0  0  0  0  0  0  0  0  0  0  0
   19.4992  -14.7419    8.4332 H   0  0  0  0  0  0  0  0  0  0  0  0
   17.2962  -15.6228    7.7015 H   0  0  0  0  0  0  0  0  0  0  0  0
   15.2029  -14.6477    8.6151 H   0  0  0  0  0  0  0  0  0  0  0  0
   15.3142  -12.8022   10.2709 H   0  0  0  0  0  0  0  0  0  0  0  0
   17.7873   -7.3783   12.0235 H   0  0  0  0  0  0  0  0  0  0  0  0
   18.5190   -6.3808    9.8752 H   0  0  0  0  0  0  0  0  0  0  0  0
  1  2  1  0
  2  3  2  0
  2  4  1  0
  4  5  2  0
  5  6  1  0
  6  7  2  0
  7  8  1  0
  8  9  1  0
  9 10  1  0
 10 11  2  0
 10 12  1  0
 12 13  1  0
 13 14  1  0
 14 15  1  0
 15 16  1  0
 16 17  1  0
 17 18  2  0
 17 19  1  0
 19 20  1  0
 19 21  1  0
 21 22  1  0
 22 23  2  0
 23 24  1  0
 24 25  2  0
 25 26  1  0
 26 27  2  0
  7 28  1  0
 28 29  2  0
 29  4  1  0
 16 12  1  0
 27 22  1  0
  1 30  1  0
  1 31  1  0
  3 32  1  0
  3 33  1  0
  5 34  1  0
  6 35  1  0
  8 36  1  0
  8 37  1  0
  9 38  1  0
 12 39  1  6
 13 40  1  0
 13 41  1  0
 14 42  1  0
 14 43  1  0
 15 44  1  0
 15 45  1  0
 19 46  1  6
 20 47  1  0
 20 48  1  0
 21 49  1  0
 21 50  1  0
 23 51  1  0
 24 52  1  0
 25 53  1  0
 26 54  1  0
 27 55  1  0
 28 56  1  0
 29 57  1  0
M  CHG  1   3   1
M  END
$$$$

     RDKit          3D

 57 59  0  0  0  0  0  0  0  0999 V2000
   19.9610   -3.4500    7.5730 N   0  0  0  0  0  0  0  0  0  0  0  0
   18.6460   -3.6590    7.5910 C   0  0  0  0  0  0  0  0  0  0  0  0
   17.9370   -3.5320    6.4720 N   0  0  0  0  0  4  0  0  0  0  0  0
   17.9730   -4.0320    8.8560 C   0  0  0  0  0  0  0  0  0  0  0  0
   18.5820   -4.9300    9.7330 C   0  0  0  0  0  0  0  0  0  0  0  0
   17.9500   -5.2750   10.9100 C   0  0  0  0  0  0  0  0  0  0  0  0
   16.7150   -4.7330   11.2200 C   0  0  0  0  0  0  0  0  0  0  0  0
   16.0300   -5.1150   12.5070 C   0  0  0  0  0  0  0  0  0  0  0  0
   16.8470   -6.0970   13.2220 N   0  0  0  0  0  0  0  0  0  0  0  0
   16.3780   -7.3450   13.4260 C   0  0  0  0  0  0  0  0  0  0  0  0
   15.2780   -7.6520   13.0170 O   0  0  0  0  0  0  0  0  0  0  0  0
   17.2180   -8.3560   14.1630 C   0  0  2  0  0  0  0  0  0  0  0  0
   17.8570   -7.7040   15.4070 C   0  0  0  0  0  0  0  0  0  0  0  0
   19.2790   -7.3300   14.9100 C   0  0  0  0  0  0  0  0  0  0  0  0
   19.5970   -8.5140   13.9600 C   0  0  0  0  0  0  0  0  0  0  0  0
   18.3140   -8.8180   13.3000 N   0  0  0  0  0  0  0  0  0  0  0  0
   18.1710   -9.4250   12.1040 C   0  0  0  0  0  0  0  0  0  0  0  0
   18.3210   -8.7910   11.0810 O   0  0  0  0  0  0  0  0  0  0  0  0
   17.8250  -10.8900   12.0380 C   0  0  2  0  0  0  0  0  0  0  0  0
   17.9560  -11.4840   13.3750 N   0  0  0  0  0  0  0  0  0  0  0  0
   18.7780  -11.5960   11.0710 C   0  0  0  0  0  0  0  0  0  0  0  0
   18.0100  -12.6040   10.2560 C   0  0  0  0  0  0  0  0  0  0  0  0
   18.6870  -13.5670    9.5310 C   0  0  0  0  0  0  0  0  0  0  0  0
   17.9830  -14.4920    8.7840 C   0  0  0  0  0  0  0  0  0  0  0  0
   16.6000  -14.4550    8.7620 C   0  0  0  0  0  0  0  0  0  0  0  0
   15.9230  -13.4920    9.4880 C   0  0  0  0  0  0  0  0  0  0  0  0
   16.6280  -12.5700   10.2380 C   0  0  0  0  0  0  0  0  0  0  0  0
   16.1040   -3.8470   10.3510 C   0  0  0  0  0  0  0  0  0  0  0  0
   16.7290   -3.4890    9.1740 C   0  0  0  0  0  0  0  0  0  0  0  0
   20.4780   -3.5420    8.3890 H   0  0  0  0  0  0  0  0  0  0  0  0
   20.4020   -3.2040    6.7450 H   0  0  0  0  0  0  0  0  0  0  0  0
   18.3780   -3.2870    5.6430 H   0  0  0  0  0  0  0  0  0  0  0  0
   16.9790   -3.6850    6.4850 H   0  0  0  0  0  0  0  0  0  0  0  0
   19.5633   -5.3618    9.4868 H   0  0  0  0  0  0  0  0  0  0  0  0
   18.4287   -5.9822   11.6033 H   0  0  0  0  0  0  0  0  0  0  0  0
   15.9008   -4.2199   13.1333 H   0  0  0  0  0  0  0  0  0  0  0  0
   15.0453   -5.5510   12.2828 H   0  0  0  0  0  0  0  0  0  0  0  0
   17.7270   -5.8520   13.5490 H   0  0  0  0  0  0  0  0  0  0  0  0
   16.5690   -9.1951   14.4540 H   0  0  0  0  0  0  0  0  0  0  0  0
   17.2976   -6.8088   15.7161 H   0  0  0  0  0  0  0  0  0  0  0  0
   17.8638   -8.3628   16.2879 H   0  0  0  0  0  0  0  0  0  0  0  0
   19.2767   -6.3715   14.3703 H   0  0  0  0  0  0  0  0  0  0  0  0
   20.0140   -7.1930   15.7168 H   0  0  0  0  0  0  0  0  0  0  0  0
   20.3557   -8.2235   13.2184 H   0  0  0  0  0  0  0  0  0  0  0  0
   20.0045   -9.3823   14.4985 H   0  0  0  0  0  0  0  0  0  0  0  0
   16.7901  -11.0071   11.6840 H   0  0  0  0  0  0  0  0  0  0  0  0
   17.3500  -11.0230   14.0370 H   0  0  0  0  0  0  0  0  0  0  0  0
   17.7760  -12.4760   13.3480 H   0  0  0  0  0  0  0  0  0  0  0  0
   19.2358  -10.8541   10.4001 H   0  0  0  0  0  0  0  0  0  0  0  0
   19.5659  -12.1094   11.6417 H   0  0  0  0  0  0  0  0  0  0  0  0
   19.7865  -13.5968    9.5488 H   0  0  0  0  0  0  0  0  0  0  0  0
   18.5220  -15.2578    8.2068 H   0  0  0  0  0  0  0  0  0  0  0  0
   16.0392  -15.1912    8.1674 H   0  0  0  0  0  0  0  0  0  0  0  0
   14.8236  -13.4600    9.4684 H   0  0  0  0  0  0  0  0  0  0  0  0
   16.0893  -11.8085   10.8211 H   0  0  0  0  0  0  0  0  0  0  0  0
   15.1180   -3.4270   10.5987 H   0  0  0  0  0  0  0  0  0  0  0  0
   16.2468   -2.7768    8.4882 H   0  0  0  0  0  0  0  0  0  0  0  0
  1  2  1  0
  2  3  2  0
  2  4  1  0
  4  5  2  0
  5  6  1  0
  6  7  2  0
  7  8  1  0
  8  9  1  0
  9 10  1  0
 10 11  2  0
 10 12  1  0
 12 13  1  0
 13 14  1  0
 14 15  1  0
 15 16  1  0
 16 17  1  0
 17 18  2  0
 17 19  1  0
 19 20  1  0
 19 21  1  0
 21 22  1  0
 22 23  2  0
 23 24  1  0
 24 25  2  0
 25 26  1  0
 26 27  2  0
  7 28  1  0
 28 29  2  0
 29  4  1  0
 16 12  1  0
 27 22  1  0
  1 30  1  0
  1 31  1  0
  3 32  1  0
  3 33  1  0
  5 34  1  0
  6 35  1  0
  8 36  1  0
  8 37  1  0
  9 38  1  0
 12 39  1  1
 13 40  1  0
 13 41  1  0
 14 42  1  0
 14 43  1  0
 15 44  1  0
 15 45  1  0
 19 46  1  6
 20 47  1  0
 20 48  1  0
 21 49  1  0
 21 50  1  0
 23 51  1  0
 24 52  1  0
 25 53  1  0
 26 54  1  0
 27 55  1  0
 28 56  1  0
 29 57  1  0
M  CHG  1   3   1
M  END
$$$$

     RDKit          3D

 57 59  0  0  0  0  0  0  0  0999 V2000
   19.1620   -3.8640    8.6880 N   0  0  0  0  0  0  0  0  0  0  0  0
   17.9550   -3.8040    9.2470 C   0  0  0  0  0  0  0  0  0  0  0  0
   17.0480   -2.9480    8.7810 N   0  0  0  0  0  4  0  0  0  0  0  0
   17.6210   -4.6910   10.3840 C   0  0  0  0  0  0  0  0  0  0  0  0
   18.2940   -5.9010   10.5490 C   0  0  0  0  0  0  0  0  0  0  0  0
   17.9780   -6.7230   11.6110 C   0  0  0  0  0  0  0  0  0  0  0  0
   16.9950   -6.3490   12.5110 C   0  0  0  0  0  0  0  0  0  0  0  0
   16.6550   -7.2520   13.6680 C   0  0  0  0  0  0  0  0  0  0  0  0
   16.6160   -8.6420   13.2080 N   0  0  0  0  0  0  0  0  0  0  0  0
   16.4190   -9.6410   14.0920 C   0  0  0  0  0  0  0  0  0  0  0  0
   16.2740   -9.3870   15.2690 O   0  0  0  0  0  0  0  0  0  0  0  0
   16.3800  -11.0710   13.6190 C   0  0  2  0  0  0  0  0  0  0  0  0
   15.3500  -11.8710   14.4430 C   0  0  0  0  0  0  0  0  0  0  0  0
   16.2290  -12.5660   15.5170 C   0  0  0  0  0  0  0  0  0  0  0  0
   17.5190  -12.8690   14.7110 C   0  0  0  0  0  0  0  0  0  0  0  0
   17.6910  -11.7020   13.8260 N   0  0  0  0  0  0  0  0  0  0  0  0
   18.8570  -11.2860   13.2930 C   0  0  0  0  0  0  0  0  0  0  0  0
   19.4010  -10.2920   13.7250 O   0  0  0  0  0  0  0  0  0  0  0  0
   19.4840  -12.0560   12.1590 C   0  0  2  0  0  0  0  0  0  0  0  0
   20.9450  -11.9130   12.2190 N   0  0  0  0  0  0  0  0  0  0  0  0
   18.9730  -11.5070   10.8250 C   0  0  0  0  0  0  0  0  0  0  0  0
   18.1380  -12.5560   10.1380 C   0  0  0  0  0  0  0  0  0  0  0  0
   16.7600  -12.5210   10.2430 C   0  0  0  0  0  0  0  0  0  0  0  0
   15.9940  -13.4840    9.6120 C   0  0  0  0  0  0  0  0  0  0  0  0
   16.6070  -14.4820    8.8760 C   0  0  0  0  0  0  0  0  0  0  0  0
   17.9850  -14.5160    8.7710 C   0  0  0  0  0  0  0  0  0  0  0  0
   18.7500  -13.5500    9.3990 C   0  0  0  0  0  0  0  0  0  0  0  0
   16.3200   -5.1530   12.3480 C   0  0  0  0  0  0  0  0  0  0  0  0
   16.6310   -4.3200   11.2940 C   0  0  0  0  0  0  0  0  0  0  0  0
   19.8240   -4.4880    9.0280 H   0  0  0  0  0  0  0  0  0  0  0  0
   19.3820   -3.2830    7.9430 H   0  0  0  0  0  0  0  0  0  0  0  0
   17.2670   -2.3680    8.0350 H   0  0  0  0  0  0  0  0  0  0  0  0
   16.1680   -2.9050    9.1870 H   0  0  0  0  0  0  0  0  0  0  0  0
   19.0750   -6.1994    9.8342 H   0  0  0  0  0  0  0  0  0  0  0  0
   18.5083   -7.6777   11.7428 H   0  0  0  0  0  0  0  0  0  0  0  0
   17.4192   -7.1467   14.4521 H   0  0  0  0  0  0  0  0  0  0  0  0
   15.6716   -6.9727   14.0742 H   0  0  0  0  0  0  0  0  0  0  0  0
   16.7320   -8.8450   12.2660 H   0  0  0  0  0  0  0  0  0  0  0  0
   16.1101  -11.0722   12.5526 H   0  0  0  0  0  0  0  0  0  0  0  0
   14.6108  -11.2026   14.9087 H   0  0  0  0  0  0  0  0  0  0  0  0
   14.7643  -12.5781   13.8373 H   0  0  0  0  0  0  0  0  0  0  0  0
   16.4330  -11.8955   16.3648 H   0  0  0  0  0  0  0  0  0  0  0  0
   15.7646  -13.4538   15.9711 H   0  0  0  0  0  0  0  0  0  0  0  0
   18.3817  -12.9749   15.3852 H   0  0  0  0  0  0  0  0  0  0  0  0
   17.4459  -13.8110   14.1477 H   0  0  0  0  0  0  0  0  0  0  0  0
   19.2151  -13.1191   12.2453 H   0  0  0  0  0  0  0  0  0  0  0  0
   21.2100  -11.1820   12.8630 H   0  0  0  0  0  0  0  0  0  0  0  0
   21.3840  -12.7870   12.4630 H   0  0  0  0  0  0  0  0  0  0  0  0
   18.3603  -10.6118   11.0073 H   0  0  0  0  0  0  0  0  0  0  0  0
   19.8279  -11.2417   10.1857 H   0  0  0  0  0  0  0  0  0  0  0  0
   16.2729  -11.7272   10.8284 H   0  0  0  0  0  0  0  0  0  0  0  0
   14.8975  -13.4564    9.6953 H   0  0  0  0  0  0  0  0  0  0  0  0
   15.9980  -15.2485    8.3743 H   0  0  0  0  0  0  0  0  0  0  0  0
   18.4729  -15.3111    8.1881 H   0  0  0  0  0  0  0  0  0  0  0  0
   19.8462  -13.5731    9.3101 H   0  0  0  0  0  0  0  0  0  0  0  0
   15.5331   -4.8655   13.0609 H   0  0  0  0  0  0  0  0  0  0  0  0
   16.0995   -3.3648   11.1711 H   0  0  0  0  0  0  0  0  0  0  0  0
  1  2  1  0
  2  3  2  0
  2  4  1  0
  4  5  2  0
  5  6  1  0
  6  7  2  0
  7  8  1  0
  8  9  1  0
  9 10  1  0
 10 11  2  0
 10 12  1  0
 12 13  1  0
 13 14  1  0
 14 15  1  0
 15 16  1  0
 16 17  1  0
 17 18  2  0
 17 19  1  0
 19 20  1  0
 19 21  1  0
 21 22  1  0
 22 23  2  0
 23 24  1  0
 24 25  2  0
 25 26  1  0
 26 27  2  0
  7 28  1  0
 28 29  2  0
 29  4  1  0
 16 12  1  0
 27 22  1  0
  1 30  1  0
  1 31  1  0
  3 32  1  0
  3 33  1  0
  5 34  1  0
  6 35  1  0
  8 36  1  0
  8 37  1  0
  9 38  1  0
 12 39  1  6
 13 40  1  0
 13 41  1  0
 14 42  1  0
 14 43  1  0
 15 44  1  0
 15 45  1  0
 19 46  1  1
 20 47  1  0
 20 48  1  0
 21 49  1  0
 21 50  1  0
 23 51  1  0
 24 52  1  0
 25 53  1  0
 26 54  1  0
 27 55  1  0
 28 56  1  0
 29 57  1  0
M  CHG  1   3   1
M  END
$$$$

     RDKit          3D

 57 59  0  0  0  0  0  0  0  0999 V2000
   18.1160  -13.9450    9.0830 N   0  0  0  0  0  0  0  0  0  0  0  0
   17.0260  -13.4400    9.6560 C   0  0  0  0  0  0  0  0  0  0  0  0
   15.8290  -13.6500    9.1110 N   0  0  0  0  0  4  0  0  0  0  0  0
   17.1430  -12.6460   10.9000 C   0  0  0  0  0  0  0  0  0  0  0  0
   16.6630  -13.1590   12.1060 C   0  0  0  0  0  0  0  0  0  0  0  0
   16.7750  -12.4140   13.2620 C   0  0  0  0  0  0  0  0  0  0  0  0
   17.3630  -11.1620   13.2270 C   0  0  0  0  0  0  0  0  0  0  0  0
   17.4820  -10.3540   14.4930 C   0  0  0  0  0  0  0  0  0  0  0  0
   17.6220   -8.9350   14.1560 N   0  0  0  0  0  0  0  0  0  0  0  0
   17.7310   -8.0170   15.1370 C   0  0  0  0  0  0  0  0  0  0  0  0
   17.7130   -8.3660   16.2990 O   0  0  0  0  0  0  0  0  0  0  0  0
   17.8750   -6.5570   14.7910 C   0  0  2  0  0  0  0  0  0  0  0  0
   17.9880   -5.7170   16.0800 C   0  0  0  0  0  0  0  0  0  0  0  0
   16.5350   -5.2150   16.2950 C   0  0  0  0  0  0  0  0  0  0  0  0
   16.0660   -4.9920   14.8340 C   0  0  0  0  0  0  0  0  0  0  0  0
   16.6800   -6.0950   14.0710 N   0  0  0  0  0  0  0  0  0  0  0  0
   16.2230   -6.5920   12.9050 C   0  0  0  0  0  0  0  0  0  0  0  0
   15.2600   -7.3300   12.8960 O   0  0  0  0  0  0  0  0  0  0  0  0
   16.9070   -6.2320   11.6110 C   0  0  2  0  0  0  0  0  0  0  0  0
   18.1740   -6.9680   11.5070 N   0  0  0  0  0  0  0  0  0  0  0  0
   17.1870   -4.7280   11.5840 C   0  0  0  0  0  0  0  0  0  0  0  0
   17.4830   -4.2990   10.1700 C   0  0  0  0  0  0  0  0  0  0  0  0
   16.4530   -3.9020    9.3380 C   0  0  0  0  0  0  0  0  0  0  0  0
   16.7250   -3.5080    8.0410 C   0  0  0  0  0  0  0  0  0  0  0  0
   18.0280   -3.5110    7.5760 C   0  0  0  0  0  0  0  0  0  0  0  0
   19.0580   -3.9070    8.4090 C   0  0  0  0  0  0  0  0  0  0  0  0
   18.7850   -4.2970    9.7070 C   0  0  0  0  0  0  0  0  0  0  0  0
   17.8350  -10.6460   12.0330 C   0  0  0  0  0  0  0  0  0  0  0  0
   17.7340  -11.3830   10.8720 C   0  0  0  0  0  0  0  0  0  0  0  0
   18.9880  -13.7920    9.4810 H   0  0  0  0  0  0  0  0  0  0  0  0
   18.0400  -14.4650    8.2680 H   0  0  0  0  0  0  0  0  0  0  0  0
   15.7530  -14.1710    8.2960 H   0  0  0  0  0  0  0  0  0  0  0  0
   15.0350  -13.2830    9.5290 H   0  0  0  0  0  0  0  0  0  0  0  0
   16.1966  -14.1548   12.1348 H   0  0  0  0  0  0  0  0  0  0  0  0
   16.3961  -12.8162   14.2132 H   0  0  0  0  0  0  0  0  0  0  0  0
   16.5800  -10.4979   15.1059 H   0  0  0  0  0  0  0  0  0  0  0  0
   18.3660  -10.6855   15.0576 H   0  0  0  0  0  0  0  0  0  0  0  0
   17.6370   -8.6560   13.2280 H   0  0  0  0  0  0  0  0  0  0  0  0
   18.7758   -6.4387   14.1708 H   0  0  0  0  0  0  0  0  0  0  0  0
   18.3228   -6.3344   16.9266 H   0  0  0  0  0  0  0  0  0  0  0  0
   18.7226   -4.9018   16.0043 H   0  0  0  0  0  0  0  0  0  0  0  0
   15.9195   -5.9716   16.8036 H   0  0  0  0  0  0  0  0  0  0  0  0
   16.4587   -4.3215   16.9320 H   0  0  0  0  0  0  0  0  0  0  0  0
   14.9690   -5.0379   14.7675 H   0  0  0  0  0  0  0  0  0  0  0  0
   16.3606   -4.0048   14.4485 H   0  0  0  0  0  0  0  0  0  0  0  0
   16.2568   -6.4991   10.7649 H   0  0  0  0  0  0  0  0  0  0  0  0
   18.0110   -7.9430   11.3070 H   0  0  0  0  0  0  0  0  0  0  0  0
   18.7770   -6.5520   10.8140 H   0  0  0  0  0  0  0  0  0  0  0  0
   16.3061   -4.1840   11.9557 H   0  0  0  0  0  0  0  0  0  0  0  0
   18.0527   -4.5040   12.2247 H   0  0  0  0  0  0  0  0  0  0  0  0
   15.4170   -3.8996    9.7078 H   0  0  0  0  0  0  0  0  0  0  0  0
   15.9054   -3.1921    7.3788 H   0  0  0  0  0  0  0  0  0  0  0  0
   18.2445   -3.1984    6.5438 H   0  0  0  0  0  0  0  0  0  0  0  0
   20.0940   -3.9118    8.0392 H   0  0  0  0  0  0  0  0  0  0  0  0
   19.6050   -4.6060   10.3719 H   0  0  0  0  0  0  0  0  0  0  0  0
   18.2918   -9.6456   12.0100 H   0  0  0  0  0  0  0  0  0  0  0  0
   18.1188  -10.9756    9.9255 H   0  0  0  0  0  0  0  0  0  0  0  0
  1  2  1  0
  2  3  2  0
  2  4  1  0
  4  5  2  0
  5  6  1  0
  6  7  2  0
  7  8  1  0
  8  9  1  0
  9 10  1  0
 10 11  2  0
 10 12  1  0
 12 13  1  0
 13 14  1  0
 14 15  1  0
 15 16  1  0
 16 17  1  0
 17 18  2  0
 17 19  1  0
 19 20  1  0
 19 21  1  0
 21 22  1  0
 22 23  2  0
 23 24  1  0
 24 25  2  0
 25 26  1  0
 26 27  2  0
  7 28  1  0
 28 29  2  0
 29  4  1  0
 16 12  1  0
 27 22  1  0
  1 30  1  0
  1 31  1  0
  3 32  1  0
  3 33  1  0
  5 34  1  0
  6 35  1  0
  8 36  1  0
  8 37  1  0
  9 38  1  0
 12 39  1  6
 13 40  1  0
 13 41  1  0
 14 42  1  0
 14 43  1  0
 15 44  1  0
 15 45  1  0
 19 46  1  6
 20 47  1  0
 20 48  1  0
 21 49  1  0
 21 50  1  0
 23 51  1  0
 24 52  1  0
 25 53  1  0
 26 54  1  0
 27 55  1  0
 28 56  1  0
 29 57  1  0
M  CHG  1   3   1
M  END
$$$$

